
*** ChampSim Multicore Out-of-Order Simulator ***

Warmup Instructions: 0
Simulation Instructions: 10000000
Number of CPUs: 1
LLC sets: 2048
LLC ways: 16
Off-chip DRAM Size: 4096 MB Channels: 1 Width: 64-bit Data Rate: 3200 MT/s

CPU 0 runs /mnt/d/users/prajyotg/acads/RA/h2p/ChampSim/dpc3_traces/champsim.trace
ChampSim does not support traces other than gz or xz compression!
bimodal-no-no-no-no-lru-1core: src/main.cc:642: int main(int, char**): Assertion `0' failed.
